$DATA1 SOURCE='HSPICE' VERSION='02.2.1' 
.TITLE '* hspice file created from cmos.ext - technology: mmi07'
 avgpow maxpow rmspow temper alter#  
  6.8877797e-07  2.5742886e-04  7.3337777e-06   25.00000000    1.00000000  
