$DATA1 SOURCE='HSPICE' VERSION='02.2.1' 
.TITLE '* hspice file created from cmos.ext - technology: mmi07'
 avgpow maxpow rmspow temper alter#  
  8.2063982e-08  3.2254919e-06  2.0529637e-07   25.00000000    1.00000000  
