$DATA1 SOURCE='HSPICE' VERSION='02.2.1' 
.TITLE '* hspice file created from dynamic.ext - technology: mmi07'
 avgpow maxpow rmspow temper alter#  
  1.3486902e-06  2.9726712e-04  1.2499584e-05   25.00000000    1.00000000  
