$DATA1 SOURCE='HSPICE' VERSION='02.2.1' 
.TITLE '* hspice file created from dynamic.ext - technology: mmi07'
 avgpow maxpow rmspow temper alter#  
  5.9434322e-06  1.5077405e-03  6.4860216e-05   25.00000000    1.00000000  
